*Heading
** Job name: JOB68 Model name: MODEL_68
** Generated by: Abaqus/CAE 2021
*Preprint, echo=NO, model=NO, history=NO, contact=NO
**
** PARTS
**
*Part, name=ROD
*End Part
**  
**
** ASSEMBLY
**
*Assembly, name=Assembly
**  
*Instance, name=ROD, part=ROD
*Node
      1,   1.97500002, 0.0250000004
      2,   1.97500002,           0.
      3,           2., 0.0250000004
      4,           0., 0.0250000004
      5,           0.,           0.
      6,          2.5,   14.1583128
      7,           0.,   14.1583128
      8,           0.,         12.5
      9,           2.,         12.5
     10,          2.5,          21.
     11,           0.,          21.
     12,   1.98749995, 0.0250000004
     13,   1.97500002, 0.0125000002
     14,   1.98749995, 0.0125000002
     15,   1.87625003, 0.0250000004
     16,   1.77750003, 0.0250000004
     17,   1.67875004, 0.0250000004
     18,   1.58000004, 0.0250000004
     19,   1.48125005, 0.0250000004
     20,   1.38250005, 0.0250000004
** ... 4900 like lines cut
*Element, type=CAX4R
1,  12,   1,  13, 533
2,  13,   2,  14, 533
3,  14,   3,  12, 533
 4,   2,  13, 534,  53
 5,  13,   1,  15, 534
 6,  53, 534, 535,  52
 7, 534,  15,  16, 535
 8,  52, 535, 536,  51
 9, 535,  16,  17, 536
10,  51, 536, 537,  50
11, 536,  17,  18, 537
12,  50, 537, 538,  49
13, 537,  18,  19, 538
14,  49, 538, 539,  48
15, 538,  19,  20, 539
16,  48, 539, 540,  47
17, 539,  20,  21, 540
18,  47, 540, 541,  46
19, 540,  21,  22, 541
20,  46, 541, 542,  45
** ... 4665 like lines cut
*Node
   4921,           0.,          23.,           0.
*Nset, nset=ROD-RefPt_, internal
4921, 
*Nset, nset=LOADING_POINT
 4921,
*Nset, nset=BOTTOM_EDGE
  2,  5, 35, 36, 37, 38, 39, 40, 41, 42, 43, 44, 45, 46, 47, 48
 49, 50, 51, 52, 53
*Elset, elset=BOTTOM_EDGE, generate
  4,  42,   2
*Nset, nset=COUPLE_EDGE
  10,  11, 445, 446, 447, 448, 449, 450, 451, 452, 453, 454, 455, 456, 457, 458
 459, 460, 461, 462, 463, 464, 465
*Elset, elset=COUPLE_EDGE, generate
 4664,  4685,     1
*Nset, nset=BOTTOM_EDGE_VERTICE
 2,
*Nset, nset=ALL_FACES, generate
    1,  4920,     1
*Elset, elset=ALL_FACES, generate
    1,  4685,     1
** Section: P91
*Solid Section, elset=ALL_FACES, material=P91
,
*End Instance
**  
*Surface, type=NODE, name=ROD_COUPLE_EDGE_CNS_, internal
ROD.COUPLE_EDGE, 1.
** Constraint: KIN_COUPLE
*Coupling, constraint name=KIN_COUPLE, ref node=ROD.LOADING_POINT, surface=ROD_COUPLE_EDGE_CNS_
*Kinematic
*End Assembly
** 
** MATERIALS
** 
*Material, name=P91
*Elastic
168909., 0.3
*Plastic
 297.217,          0.
 312.529, 9.34908e-06
 327.344, 2.16388e-05
 341.691, 3.67004e-05
 354.367, 6.16514e-05
   363.7, 0.000106399
 370.094, 0.000168542
 374.891, 0.000240143
 379.436, 0.000313235
 384.755, 0.000381749
  390.58, 0.000447259
  396.32, 0.000513278
 401.388, 0.000583276
 405.505, 0.000658902
 408.829, 0.000739217
 411.554, 0.000823088
 413.869, 0.000909379
 415.968, 0.000996957
 418.019,  0.00108481
 420.061,  0.00117272
** ... 1078 like lines cut
*Porous Metal Plasticity, relative density=0.998578
 0.949632, 1.00264, 2.04308
*Void Nucleation
 0.390105,  0.182854, 0.0741422
** 
** BOUNDARY CONDITIONS
** 
** Name: CONSTRAIN_LOADING Type: Displacement/Rotation
*Boundary
ROD.LOADING_POINT, 1, 1
ROD.LOADING_POINT, 6, 6
** Name: X_SYM Type: Displacement/Rotation
*Boundary
ROD.BOTTOM_EDGE, 2, 2
** ----------------------------------------------------------------
** 
** STEP: DISPLACEMENT
** 
*Step, name=DISPLACEMENT, nlgeom=YES
*Static
0.1, 1., 0.001, 0.1
** 
** BOUNDARY CONDITIONS
** 
** Name: DISPLACEMENT Type: Displacement/Rotation
*Boundary
ROD.LOADING_POINT, 2, 2, 2.86693
** 
** OUTPUT REQUESTS
** 
*Restart, write, frequency=0
** 
** FIELD OUTPUT: F-Output-1
** 
*Output, field
*Node Output
RF, U
*Element Output, directions=YES
E, PEEQ, S
** 
** HISTORY OUTPUT: E22
** 
*Output, history
*Element Output, elset=ROD.BOTTOM_EDGE
E22, 
** 
** HISTORY OUTPUT: PEEQ
** 
*Element Output, elset=ROD.BOTTOM_EDGE
PEEQ, 
** 
** HISTORY OUTPUT: RF
** 
*Node Output, nset=ROD.BOTTOM_EDGE
RF2, 
** 
** HISTORY OUTPUT: S22
** 
*Element Output, elset=ROD.BOTTOM_EDGE
S22, 
** 
** HISTORY OUTPUT: UX
** 
*Node Output, nset=ROD.BOTTOM_EDGE_VERTICE
U1, 
** 
** HISTORY OUTPUT: UY
** 
*Node Output, nset=ROD.LOADING_POINT
U2, 
*End Step
